Circuit: * C:\Users\admin\Documents\New folder\1d\1D_VTC_AC_WITh_C.asc

Ignoring BSIM parameter XL
Ignoring BSIM parameter XW
Ignoring BSIM parameter XL
Ignoring BSIM parameter XW
WARNING: Node N003 is floating.
WARNING: Node N002 is floating.

WARNING: Less than two connections to node N003.  This node is used by M1.
WARNING: Less than two connections to node N002.  This node is used by M4.
Warning: Pd = 0 is less than W.
Warning: Ps = 0 is less than W.
Warning: Pd = 0 is less than W.
Warning: Ps = 0 is less than W.
Direct Newton iteration for .op point succeeded.
.step n=1
.step n=2
.step n=3
.step n=4
.step n=5


Measurement: risetime
  step	risetime	FROM	TO
     1	2.02762e-008	7.5217e-006	7.54197e-006
     2	2.04026e-008	7.52171e-006	7.54212e-006
     3	2.04629e-008	7.52174e-006	7.5422e-006
     4	1.04466e-008	7.51914e-006	7.52959e-006
     5	5.67057e-009	7.51743e-006	7.5231e-006

Measurement: falltime
  step	falltime	FROM	TO
     1	2.1157e-008	2.51247e-006	2.53363e-006
     2	1.19024e-008	2.50985e-006	2.52175e-006
     3	6.71394e-009	2.50795e-006	2.51466e-006
     4	2.08648e-008	2.51254e-006	2.53341e-006
     5	2.06912e-008	2.51264e-006	2.53333e-006


Date: Thu May 04 17:06:40 2023
Total elapsed time: 0.219 seconds.

tnom = 27
temp = 27
method = modified trap
totiter = 2632
traniter = 2606
tranpoints = 1229
accept = 1184
rejected = 45
matrix size = 7
fillins = 2
solver = Normal
Matrix Compiler1: 402 bytes object code size  0.1/0.1/[0.1]
Matrix Compiler2:      48 opcodes  0.1/[0.0]/0.1

