Circuit: * C:\Users\admin\Documents\New folder\1d\1D_VTC_AC_WITHOUT_C.asc

Ignoring BSIM parameter XL
Ignoring BSIM parameter XW
Ignoring BSIM parameter XL
Ignoring BSIM parameter XW
WARNING: Node N003 is floating.
WARNING: Node N002 is floating.

WARNING: Less than two connections to node N003.  This node is used by M1.
WARNING: Less than two connections to node N002.  This node is used by M4.
Warning: Pd = 0 is less than W.
Warning: Ps = 0 is less than W.
Warning: Pd = 0 is less than W.
Warning: Ps = 0 is less than W.
Direct Newton iteration for .op point succeeded.
.step n=1
.step n=2
.step n=3
.step n=4
.step n=5


Measurement: risetime
  step	risetime	FROM	TO
     1	6.28033e-012	1.75233e-008	1.75296e-008
     2	7.32282e-012	1.75244e-008	1.75318e-008
     3	1.03055e-011	1.75263e-008	1.75366e-008
     4	4.73833e-012	1.75231e-008	1.75279e-008
     5	4.40645e-012	1.75232e-008	1.75276e-008

Measurement: falltime
  step	falltime	FROM	TO
     1	6.64395e-012	1.25145e-008	1.25211e-008
     2	4.9463e-012	1.2513e-008	1.25179e-008
     3	3.56331e-012	1.2512e-008	1.25155e-008
     4	9.79569e-012	1.25189e-008	1.25287e-008
     5	1.65882e-011	1.25273e-008	1.25439e-008


Date: Thu May 04 17:44:14 2023
Total elapsed time: 0.206 seconds.

tnom = 27
temp = 27
method = modified trap
totiter = 2512
traniter = 2486
tranpoints = 1163
accept = 1127
rejected = 36
matrix size = 7
fillins = 2
solver = Normal
Matrix Compiler1: 402 bytes object code size  0.1/0.0/[0.0]
Matrix Compiler2: off  [0.0]/0.0/0.1

