Circuit: * C:\Users\admin\Documents\New folder\1a\VTC_CMOS2.asc

Ignoring BSIM parameter XL
Ignoring BSIM parameter XW
Ignoring BSIM parameter XL
Ignoring BSIM parameter XW
WARNING: Node N003 is floating.
WARNING: Node N002 is floating.

WARNING: Less than two connections to node N003.  This node is used by M1.
WARNING: Less than two connections to node N002.  This node is used by M4.
Warning: Pd = 0 is less than W.
Warning: Ps = 0 is less than W.
Warning: Pd = 0 is less than W.
Warning: Ps = 0 is less than W.
.step x=4e-007
.step x=8e-007
.step x=1.2e-006
.step x=1.6e-006

Date: Thu May 04 14:47:19 2023
Total elapsed time: 0.079 seconds.

tnom = 27
temp = 27
method = trap
totiter = 396
traniter = 0
tranpoints = 0
accept = 0
rejected = 0
matrix size = 7
fillins = 2
solver = Normal
Matrix Compiler1:      23 opcodes  0.1/[0.1]/0.1
Matrix Compiler2:      48 opcodes  0.1/[0.1]/0.2

