Circuit: * E:\EE619A SPICE PROJECT\Spice Project\1a\VTC_CMOS.asc

Ignoring BSIM parameter XL
Ignoring BSIM parameter XW
Ignoring BSIM parameter XL
Ignoring BSIM parameter XW
WARNING: Node N003 is floating.
WARNING: Node N002 is floating.

WARNING: Less than two connections to node n003.  This node is used by m1.
WARNING: Less than two connections to node n002.  This node is used by m4.
Warning: Pd = 0 is less than W.
Warning: Ps = 0 is less than W.
Warning: Pd = 0 is less than W.
Warning: Ps = 0 is less than W.

Multiply defined .measure result:  thresholdvalues   

  Each .measure statement needs a unique result name.

Date: Sat Aug 17 12:29:14 2024
Total elapsed time: 0.050 seconds.

tnom = 27
temp = 27
method = trap
totiter = 392
traniter = 0
tranpoints = 0
accept = 0
rejected = 0
matrix size = 7
fillins = 2
solver = Normal
Avg thread counts: 4.6/0.0/8.5/4.6
Matrix Compiler1: 366 bytes object code size  0.1/0.1/[0.1]
Matrix Compiler2:      48 opcodes  0.1/[0.0]/0.0

