Circuit: * E:\EE619A SPICE PROJECT\Spice Project\1e\1E_NMOS_DRAIN_DRIVING_H_TO_L.asc

Ignoring BSIM parameter XL
Ignoring BSIM parameter XW
WARNING: Node N004 is floating.
WARNING: Node N003 is floating.

WARNING: Less than two connections to node n004.  This node is used by m2.
WARNING: Less than two connections to node n003.  This node is used by m1.
Warning: Pd = 0 is less than W.
Warning: Ps = 0 is less than W.
Warning: Pd = 0 is less than W.
Warning: Ps = 0 is less than W.
.dc sweep increment has wrong sign -- fixing...
.step n=1
.step n=2
.step n=3

Date: Sat Aug 17 12:30:18 2024
Total elapsed time: 0.101 seconds.

tnom = 27
temp = 27
method = trap
totiter = 390
traniter = 0
tranpoints = 0
accept = 0
rejected = 0
matrix size = 10
fillins = 0
solver = Normal
Avg thread counts: 4.6/0.0/8.5/4.6
Matrix Compiler1:      24 opcodes  0.1/0.1/[0.1]
Matrix Compiler2: 800 bytes object code size  0.1/0.1/[0.1]

