Circuit: * C:\Users\admin\Documents\New folder\1e\1E_NMOS_GATE_DRIVING_H_TO_L.asc

Ignoring BSIM parameter XL
Ignoring BSIM parameter XW
WARNING: Node N004 is floating.
WARNING: Node N003 is floating.

WARNING: Less than two connections to node N004.  This node is used by M2.
WARNING: Less than two connections to node N003.  This node is used by M1.
Warning: Pd = 0 is less than W.
Warning: Ps = 0 is less than W.
.dc sweep increment has wrong sign -- fixing...
.step n=1
.step n=2
.step n=3

Date: Thu May 04 17:38:55 2023
Total elapsed time: 0.112 seconds.

tnom = 27
temp = 27
method = trap
totiter = 390
traniter = 0
tranpoints = 0
accept = 0
rejected = 0
matrix size = 10
fillins = 0
solver = Normal
Matrix Compiler1:      28 opcodes  0.1/[0.1]/0.1
Matrix Compiler2: 776 bytes object code size  0.0/0.1/[0.0]

