Circuit: * C:\Users\admin\Documents\New folder\1b\VTC_AC_CMOS_CURRENT_WITh_C.asc

Ignoring BSIM parameter XL
Ignoring BSIM parameter XW
Ignoring BSIM parameter XL
Ignoring BSIM parameter XW
WARNING: Node N003 is floating.
WARNING: Node N002 is floating.

WARNING: Less than two connections to node N003.  This node is used by M1.
WARNING: Less than two connections to node N002.  This node is used by M4.
Warning: Pd = 0 is less than W.
Warning: Ps = 0 is less than W.
Warning: Pd = 0 is less than W.
Warning: Ps = 0 is less than W.
.step n=1
.step n=2
.step n=3

Date: Thu May 04 15:27:10 2023
Total elapsed time: 0.121 seconds.

tnom = 27
temp = 27
method = trap
totiter = 396
traniter = 0
tranpoints = 0
accept = 0
rejected = 0
matrix size = 7
fillins = 2
solver = Normal
Matrix Compiler1: 402 bytes object code size  0.1/0.0/[0.0]
Matrix Compiler2: 605 bytes object code size  0.0/0.1/[0.0]

