Circuit: * C:\Users\admin\Documents\New folder\1b\VTC_AC_WITh_C.asc

Ignoring BSIM parameter XL
Ignoring BSIM parameter XW
Ignoring BSIM parameter XL
Ignoring BSIM parameter XW
WARNING: Node N003 is floating.
WARNING: Node N002 is floating.

WARNING: Less than two connections to node N003.  This node is used by M1.
WARNING: Less than two connections to node N002.  This node is used by M4.
Warning: Pd = 0 is less than W.
Warning: Ps = 0 is less than W.
Warning: Pd = 0 is less than W.
Warning: Ps = 0 is less than W.
Direct Newton iteration for .op point succeeded.
.step n=1
.step n=2
.step n=3


Measurement: falltime
  step	falltime	FROM	TO
     1	3.00416e-008	2.50927e-006	2.53931e-006
     2	1.73842e-008	2.50783e-006	2.52521e-006
     3	9.92094e-009	2.50671e-006	2.51663e-006

Measurement: risetime
  step	risetime	FROM	TO
     1	3.03604e-008	7.51914e-006	7.5495e-006
     2	1.6406e-008	7.51741e-006	7.53382e-006
     3	8.73263e-009	7.51631e-006	7.52504e-006


Date: Thu May 04 16:39:28 2023
Total elapsed time: 0.165 seconds.

tnom = 27
temp = 27
method = modified trap
totiter = 2654
traniter = 2628
tranpoints = 1253
accept = 1197
rejected = 56
matrix size = 7
fillins = 2
solver = Normal
Matrix Compiler1:      23 opcodes  0.1/[0.0]/0.0
Matrix Compiler2: off  [0.0]/0.1/0.1

